$ MSC.Nastran input file created on June      10, 2021 at 00:52:54 by
$ Patran 2020  (Student Edition)
$ Direct Text Input for Nastran System Cell Section
$ Direct Text Input for File Management Section
$ Direct Text Input for Executive Control
$ Normal Modes Analysis, Database
SOL 103
CEND
$ Direct Text Input for Global Case Control Data
TITLE = MSC.Nastran job created on 10-Jun-21 at 00:50:34
ECHO = NONE
$ Using Nastran default values for RESVEC
SUBCASE 1
$ Subcase name : Default
   SUBTITLE=Default
   METHOD = 1
   VECTOR(SORT1,REAL)=ALL
   SPCFORCES(SORT1,REAL)=ALL
   EXTSEOUT(STIF,DAMP,MASS,EXTID=1,DMIGPCH)
BEGIN BULK
$ Direct Text Input for Bulk Data
PARAM    POST    0
PARAM   PRTMAXIM YES
EIGRL    1                       10      0
$ Elements and Element Properties for region : beam
PBARL    1       1               ROD
         .001
$ Pset: "beam" will be imported as: "pbarl.1"
CBAR     1       1       1       2       0.      0.      1.
                         0.      0.      0.      0.      0.      0.
CBAR     2       1       2       3       0.      0.      1.
                         0.      0.      0.      0.      0.      0.
CBAR     3       1       3       4       0.      0.      1.
                         0.      0.      0.      0.      0.      0.
CBAR     4       1       4       5       0.      0.      1.
                         0.      0.      0.      0.      0.      0.
CBAR     5       1       5       6       0.      0.      1.
                         0.      0.      0.      0.      0.      0.
CBAR     6       1       6       7       0.      0.      1.
                         0.      0.      0.      0.      0.      0.
CBAR     7       1       7       8       0.      0.      1.
                         0.      0.      0.      0.      0.      0.
CBAR     8       1       8       9       0.      0.      1.
                         0.      0.      0.      0.      0.      0.
CBAR     9       1       9       10      0.      0.      1.
                         0.      0.      0.      0.      0.      0.
CBAR     10      1       10      11      0.      0.      1.
                         0.      0.      0.      0.      0.      0.
CBAR     11      1       11      12      0.      0.      1.
                         0.      0.      0.      0.      0.      0.
CBAR     12      1       12      13      0.      0.      1.
                         0.      0.      0.      0.      0.      0.
CBAR     13      1       13      14      0.      0.      1.
                         0.      0.      0.      0.      0.      0.
CBAR     14      1       14      15      0.      0.      1.
                         0.      0.      0.      0.      0.      0.
CBAR     15      1       15      16      0.      0.      1.
                         0.      0.      0.      0.      0.      0.
CBAR     16      1       16      17      0.      0.      1.
                         0.      0.      0.      0.      0.      0.
CBAR     17      1       17      18      0.      0.      1.
                         0.      0.      0.      0.      0.      0.
CBAR     18      1       18      19      0.      0.      1.
                         0.      0.      0.      0.      0.      0.
CBAR     19      1       19      20      0.      0.      1.
                         0.      0.      0.      0.      0.      0.
CBAR     20      1       20      21      0.      0.      1.
                         0.      0.      0.      0.      0.      0.
$ ... 60 like lines cut
$ Referenced Material Records
$ Material Record : material
$ Description of Material : Date: 10-Jun-21           Time: 00:39:04
MAT1     1       2.4+8           .4      1400.
$ Nodes of the Entire Model
GRID     1               0.      0.      0.
GRID*    2                              .009999999776483 0.
*        0.
GRID*    3                              .019999999552965 0.
*        0.
GRID*    4                              .029999999329448 0.
*        0.
GRID*    5                               .03999999910593 0.
*        0.
GRID*    6                              .050000000745058 0.
*        0.
GRID*    7                              .059999998658895 0.
*        0.
GRID*    8                              .070000000298023 0.
*        0.
GRID*    9                              .079999998211861 0.
*        0.
GRID*    10                             .090000003576279 0.
*        0.
GRID*    11                             .100000001490116 0.
*        0.
GRID*    12                             .109999999403954 0.
*        0.
GRID*    13                             .119999997317791 0.
*        0.
GRID*    14                             .129999995231628 0.
*        0.
GRID*    15                             .140000000596046 0.
*        0.
GRID*    16                             .150000005960464 0.
*        0.
GRID*    17                             .159999996423721 0.
*        0.
GRID*    18                             .170000001788139 0.
*        0.
GRID*    19                             .180000007152557 0.
*        0.
GRID*    20                             .189999997615814 0.
*        0.
GRID*    21                             .200000002980232 0.
*        0.
$ ... 8 like lines cut
GRID     26              .25     0.      0.
GRID*    27                             .259999990463257 0.
*        0.
GRID*    28                             .270000010728836 0.
*        0.
GRID*    29                             .280000001192093 0.
*        0.
GRID*    30                              .28999999165535 0.
*        0.
GRID*    31                             .300000011920929 0.
*        0.
GRID*    32                             .310000002384186 0.
*        0.
GRID*    33                             .319999992847443 0.
*        0.
GRID*    34                             .330000013113022 0.
*        0.
GRID*    35                             .340000003576279 0.
*        0.
GRID*    36                             .349999994039536 0.
*        0.
GRID*    37                             .360000014305115 0.
*        0.
GRID*    38                             .370000004768372 0.
*        0.
GRID*    39                             .379999995231628 0.
*        0.
GRID*    40                             .389999985694885 0.
*        0.
GRID*    41                             .400000005960464 0.
*        0.
GRID*    42                             .409999996423721 0.
*        0.
GRID*    43                             .419999986886978 0.
*        0.
GRID*    44                             .430000007152557 0.
*        0.
GRID*    45                             .439999997615814 0.
*        0.
GRID*    46                             .449999988079071 0.
*        0.
$ ... 8 like lines cut
GRID     51              .5      0.      0.
$ Loads for Load Case : Default
$ Referenced Coordinate Frames
ENDDATA 4aa3fe4f
