$ MSC.Nastran input file created on June      12, 2021 at 17:18:30 by
$ Patran 2020  (Student Edition)
$ Direct Text Input for Nastran System Cell Section
$ Direct Text Input for File Management Section
$ Direct Text Input for Executive Control
$ Normal Modes Analysis, Database
SOL 103
CEND
$ Direct Text Input for Global Case Control Data
TITLE = MSC.Nastran job created on 10-Jun-21 at 00:50:34
ECHO = NONE
$ Using Nastran default values for RESVEC
SUBCASE 1
$ Subcase name : Default
   SUBTITLE=Default
   METHOD = 1
   VECTOR(SORT1,REAL)=ALL
   SPCFORCES(SORT1,REAL)=ALL
   EXTSEOUT(STIF,DAMP,MASS,EXTID=1,DMIGPCH)
BEGIN BULK
$ Direct Text Input for Bulk Data
PARAM    POST    0
PARAM   PRTMAXIM YES
EIGRL    1                       10      0
$ Elements and Element Properties for region : beam
PBARL    1       1               ROD
         .001
$ Pset: "beam" will be imported as: "pbarl.1"
CBAR     100     1       100     101     0.      0.      1.
                         0.      0.      0.      0.      0.      0.
CBAR     101     1       101     102     0.      0.      1.
                         0.      0.      0.      0.      0.      0.
CBAR     102     1       102     103     0.      0.      1.
                         0.      0.      0.      0.      0.      0.
CBAR     103     1       103     104     0.      0.      1.
                         0.      0.      0.      0.      0.      0.
CBAR     104     1       104     105     0.      0.      1.
                         0.      0.      0.      0.      0.      0.
CBAR     105     1       105     106     0.      0.      1.
                         0.      0.      0.      0.      0.      0.
CBAR     106     1       106     107     0.      0.      1.
                         0.      0.      0.      0.      0.      0.
CBAR     107     1       107     108     0.      0.      1.
                         0.      0.      0.      0.      0.      0.
CBAR     108     1       108     109     0.      0.      1.
                         0.      0.      0.      0.      0.      0.
CBAR     109     1       109     110     0.      0.      1.
                         0.      0.      0.      0.      0.      0.
CBAR     110     1       110     111     0.      0.      1.
                         0.      0.      0.      0.      0.      0.
CBAR     111     1       111     112     0.      0.      1.
                         0.      0.      0.      0.      0.      0.
CBAR     112     1       112     113     0.      0.      1.
                         0.      0.      0.      0.      0.      0.
CBAR     113     1       113     114     0.      0.      1.
                         0.      0.      0.      0.      0.      0.
CBAR     114     1       114     115     0.      0.      1.
                         0.      0.      0.      0.      0.      0.
CBAR     115     1       115     116     0.      0.      1.
                         0.      0.      0.      0.      0.      0.
CBAR     116     1       116     117     0.      0.      1.
                         0.      0.      0.      0.      0.      0.
CBAR     117     1       117     118     0.      0.      1.
                         0.      0.      0.      0.      0.      0.
CBAR     118     1       118     119     0.      0.      1.
                         0.      0.      0.      0.      0.      0.
CBAR     119     1       119     120     0.      0.      1.
                         0.      0.      0.      0.      0.      0.
$ ... 60 like lines cut
$ Referenced Material Records
$ Material Record : material
$ Description of Material : Date: 10-Jun-21           Time: 00:39:04
MAT1     1       2.4+8           .4      1400.
$ Nodes of the Entire Model
GRID     100             0.      0.      0.
GRID*    101                            .009999999776483 0.
*        0.
GRID*    102                            .019999999552965 0.
*        0.
GRID*    103                            .029999999329448 0.
*        0.
GRID*    104                             .03999999910593 0.
*        0.
GRID*    105                            .050000000745058 0.
*        0.
GRID*    106                            .059999998658895 0.
*        0.
GRID*    107                            .070000000298023 0.
*        0.
GRID*    108                            .079999998211861 0.
*        0.
GRID*    109                            .090000003576279 0.
*        0.
GRID*    110                            .100000001490116 0.
*        0.
GRID*    111                            .109999999403954 0.
*        0.
GRID*    112                            .119999997317791 0.
*        0.
GRID*    113                            .129999995231628 0.
*        0.
GRID*    114                            .140000000596046 0.
*        0.
GRID*    115                            .150000005960464 0.
*        0.
GRID*    116                            .159999996423721 0.
*        0.
GRID*    117                            .170000001788139 0.
*        0.
GRID*    118                            .180000007152557 0.
*        0.
GRID*    119                            .189999997615814 0.
*        0.
GRID*    120                            .200000002980232 0.
*        0.
$ ... 8 like lines cut
GRID     125             .25     0.      0.
GRID*    126                            .259999990463257 0.
*        0.
GRID*    127                            .270000010728836 0.
*        0.
GRID*    128                            .280000001192093 0.
*        0.
GRID*    129                             .28999999165535 0.
*        0.
GRID*    130                            .300000011920929 0.
*        0.
GRID*    131                            .310000002384186 0.
*        0.
GRID*    132                            .319999992847443 0.
*        0.
GRID*    133                            .330000013113022 0.
*        0.
GRID*    134                            .340000003576279 0.
*        0.
GRID*    135                            .349999994039536 0.
*        0.
GRID*    136                            .360000014305115 0.
*        0.
GRID*    137                            .370000004768372 0.
*        0.
GRID*    138                            .379999995231628 0.
*        0.
GRID*    139                            .389999985694885 0.
*        0.
GRID*    140                            .400000005960464 0.
*        0.
GRID*    141                            .409999996423721 0.
*        0.
GRID*    142                            .419999986886978 0.
*        0.
GRID*    143                            .430000007152557 0.
*        0.
GRID*    144                            .439999997615814 0.
*        0.
GRID*    145                            .449999988079071 0.
*        0.
$ ... 8 like lines cut
GRID     150             .5      0.      0.
$ Loads for Load Case : Default
$ Referenced Coordinate Frames
ENDDATA 7c9adba9
