$ MSC.Nastran input file created on June      10, 2021 at 01:10:02 by
$ Patran 2020  (Student Edition)
$ Direct Text Input for Nastran System Cell Section
$ Direct Text Input for File Management Section
$ Direct Text Input for Executive Control
$ Normal Modes Analysis, Database
SOL 103
CEND
$ Direct Text Input for Global Case Control Data
TITLE = MSC.Nastran job created on 10-Jun-21 at 01:09:56
ECHO = NONE
$ Using Nastran default values for RESVEC
SUBCASE 1
$ Subcase name : Default
   SUBTITLE=Default
   METHOD = 1
   VECTOR(SORT1,REAL)=ALL
   SPCFORCES(SORT1,REAL)=ALL
   EXTSEOUT(STIF,DAMP,MASS,EXTID=1,DMIGPCH)
BEGIN BULK
$ Direct Text Input for Bulk Data
PARAM    POST    0
PARAM   PRTMAXIM YES
EIGRL    1                       10      0
$ Elements and Element Properties for region : beam
PBARL    1       1               ROD
*        5.0000002-4
*
$ Pset: "beam" will be imported as: "pbarl.1"
CBAR     10      1       10      11      0.      0.      1.
                         0.      0.      0.      0.      0.      0.
CBAR     11      1       11      12      0.      0.      1.
                         0.      0.      0.      0.      0.      0.
CBAR     12      1       12      13      0.      0.      1.
                         0.      0.      0.      0.      0.      0.
CBAR     13      1       13      14      0.      0.      1.
                         0.      0.      0.      0.      0.      0.
CBAR     14      1       14      15      0.      0.      1.
                         0.      0.      0.      0.      0.      0.
CBAR     15      1       15      16      0.      0.      1.
                         0.      0.      0.      0.      0.      0.
CBAR     16      1       16      17      0.      0.      1.
                         0.      0.      0.      0.      0.      0.
CBAR     17      1       17      18      0.      0.      1.
                         0.      0.      0.      0.      0.      0.
CBAR     18      1       18      19      0.      0.      1.
                         0.      0.      0.      0.      0.      0.
CBAR     19      1       19      20      0.      0.      1.
                         0.      0.      0.      0.      0.      0.
CBAR     20      1       20      21      0.      0.      1.
                         0.      0.      0.      0.      0.      0.
CBAR     21      1       21      22      0.      0.      1.
                         0.      0.      0.      0.      0.      0.
CBAR     22      1       22      23      0.      0.      1.
                         0.      0.      0.      0.      0.      0.
CBAR     23      1       23      24      0.      0.      1.
                         0.      0.      0.      0.      0.      0.
CBAR     24      1       24      25      0.      0.      1.
                         0.      0.      0.      0.      0.      0.
CBAR     25      1       25      26      0.      0.      1.
                         0.      0.      0.      0.      0.      0.
CBAR     26      1       26      27      0.      0.      1.
                         0.      0.      0.      0.      0.      0.
CBAR     27      1       27      28      0.      0.      1.
                         0.      0.      0.      0.      0.      0.
CBAR     28      1       28      29      0.      0.      1.
                         0.      0.      0.      0.      0.      0.
CBAR     29      1       29      30      0.      0.      1.
                         0.      0.      0.      0.      0.      0.
$ ... 80 like lines cut
$ Referenced Material Records
$ Material Record : material
$ Description of Material : Date: 10-Jun-21           Time: 00:39:04
MAT1*    1               7.0000001+10                    .3
*        11333.
$ Nodes of the Entire Model
GRID     10              0.      0.      0.
GRID*    11                             .010000000707805 0.
*        0.
GRID*    12                              .02000000141561 0.
*        0.
GRID*    13                             .030000001192093 0.
*        0.
GRID*    14                             .040000002831221 0.
*        0.
GRID*    15                             .050000008195639 0.
*        0.
GRID*    16                             .060000006109476 0.
*        0.
GRID*    17                             .070000007748604 0.
*        0.
GRID*    18                             .080000013113022 0.
*        0.
GRID*    19                             .090000011026859 0.
*        0.
GRID*    20                             .100000023841858 0.
*        0.
GRID*    21                             .110000021755695 0.
*        0.
GRID*    22                             .120000019669533 0.
*        0.
GRID*    23                             .130000025033951 0.
*        0.
GRID*    24                             .140000015497208 0.
*        0.
GRID*    25                             .150000020861626 0.
*        0.
GRID*    26                             .160000026226044 0.
*        0.
GRID*    27                             .170000016689301 0.
*        0.
GRID*    28                             .180000022053719 0.
*        0.
GRID*    29                             .190000042319298 0.
*        0.
GRID*    30                             .200000047683716 0.
*        0.
$ ... 80 like lines cut
$ Loads for Load Case : Default
$ Referenced Coordinate Frames
ENDDATA 818a3324
