$ MSC.Nastran input file created on April     01, 2021 at 17:31:32 by
$ Patran 2020  (Student Edition)
$ Direct Text Input for Nastran System Cell Section
$ Direct Text Input for File Management Section
$ Direct Text Input for Executive Control
$ Linear Static Analysis, Database
SOL 101
CEND
$ Direct Text Input for Global Case Control Data
TITLE = MSC.Nastran job created on 01-Apr-21 at 16:52:57
ECHO = NONE
TEMPERATURE(INITIAL) = 1
SUBCASE 1
   SUBTITLE=Carga_termica
   SPC = 2
   TEMPERATURE(LOAD) = 3
   DISPLACEMENT(SORT1,REAL)=ALL
   SPCFORCES(SORT1,REAL)=ALL
   STRESS(SORT1,REAL,VONMISES,BILIN)=ALL
$ Direct Text Input for this Subcase
BEGIN BULK
$ Direct Text Input for Bulk Data
MDLPRM   HDF5    0
PARAM   PRTMAXIM YES
$ Elements and Element Properties for region : Varilla
PROD*    1               1               9.9999997-5
*
$ Pset: "Varilla" will be imported as: "prod.1"
CROD     1       1       1       2
CROD     2       1       1       4
CROD     3       1       4       2
$ Referenced Material Records
$ Material Record : mat6
$ Description of Material : Date: 01-Apr-21           Time: 00:06:13
MAT1*    1               7.0000001+10
*                        2.25-5          0.
$ Nodes of the Entire Model
GRID*    1                              .176776692271233 0.
*        0.
GRID*    2                               0.             .176776692271233
*        0.
GRID     4               0.      0.      0.
$ Loads for Load Case : Carga_termica
SPCADD   2       1       3       4
$ Bar Element Temperatures of Load Set : Carga_termica
TEMPRB   3       1       50.     50.
+
         2       3
$ Displacement Constraints of Load Set : BC_1
SPC1     1       23      1
$ Displacement Constraints of Load Set : BC_2
SPC1     3       123     4
$ Displacement Constraints of Load Set : BC_3
SPC1     4       13      2
$ Initial Temperatures of Load Set : Temperatura_ini
TEMP     1       1       0.      2       0.      4       0.
$ Referenced Coordinate Frames
ENDDATA b46547f9
