$ MSC.Nastran input file created on June      05, 2021 at 14:03:44 by
$ Patran 2021.1  (Student Edition)
$ Direct Text Input for Nastran System Cell Section
$ Direct Text Input for File Management Section
$ Direct Text Input for Executive Control
$ Normal Modes Analysis, Database
SOL 103
CEND
$ Direct Text Input for Global Case Control Data
TITLE = MSC.Nastran job created on 05-Jun-21 at 14:03:00
ECHO = NONE
$ Using Nastran default values for RESVEC
SUBCASE 1
   SUBTITLE=LoadCase
   METHOD = 1
   EXTSEOUT(STIF,DAMP,MASS,EXTID=1,DMIGPCH)
   SPC = 2
   VECTOR(PLOT,SORT1,REAL)=ALL
$ Direct Text Input for this Subcase
BEGIN BULK
$ Direct Text Input for Bulk Data
PARAM    POST    0
PARAM   PRTMAXIM YES
EIGRL    1                       10      0                       MASS
$ Elements and Element Properties for region : 1D_Viga2
PBARL    1       1               ROD
*        5.0000002-4
*
$ Pset: "1D_Viga2" will be imported as: "pbarl.1"
CBAR     1       1       61      7       0.      1.      0.
CBAR     2       1       7       8       0.      1.      0.
CBAR     3       1       8       9       0.      1.      0.
CBAR     4       1       9       10      0.      1.      0.
CBAR     5       1       10      11      0.      1.      0.
CBAR     6       1       11      12      0.      1.      0.
CBAR     7       1       12      13      0.      1.      0.
CBAR     8       1       13      14      0.      1.      0.
CBAR     9       1       14      15      0.      1.      0.
CBAR     10      1       15      16      0.      1.      0.
CBAR     11      1       16      17      0.      1.      0.
CBAR     12      1       17      18      0.      1.      0.
CBAR     13      1       18      19      0.      1.      0.
CBAR     14      1       19      20      0.      1.      0.
CBAR     15      1       20      21      0.      1.      0.
CBAR     16      1       21      22      0.      1.      0.
CBAR     17      1       22      23      0.      1.      0.
CBAR     18      1       23      24      0.      1.      0.
CBAR     19      1       24      25      0.      1.      0.
CBAR     20      1       25      26      0.      1.      0.
$ ... 40 like lines cut
$ Referenced Material Records
$ Material Record : Mat_viga2
$ Description of Material : Date: 05-Jun-21           Time: 11:36:27
MAT1*    1               7.0000001+10                    .3
*        11333.
$ Nodes of the Entire Model
GRID*    7                              .010000000707805 0.
*        0.
GRID*    8                               .02000000141561 0.
*        0.
GRID*    9                              .030000001192093 0.
*        0.
GRID*    10                             .040000002831221 0.
*        0.
GRID*    11                             .050000008195639 0.
*        0.
GRID*    12                             .060000006109476 0.
*        0.
GRID*    13                             .070000007748604 0.
*        0.
GRID*    14                             .080000013113022 0.
*        0.
GRID*    15                             .090000011026859 0.
*        0.
GRID*    16                             .100000023841858 0.
*        0.
GRID*    17                             .110000021755695 0.
*        0.
GRID*    18                             .120000019669533 0.
*        0.
GRID*    19                             .130000025033951 0.
*        0.
GRID*    20                             .140000015497208 0.
*        0.
GRID*    21                             .150000020861626 0.
*        0.
GRID*    22                             .160000026226044 0.
*        0.
GRID*    23                             .170000016689301 0.
*        0.
GRID*    24                             .180000022053719 0.
*        0.
GRID*    25                             .190000042319298 0.
*        0.
GRID*    26                             .200000047683716 0.
*        0.
$ ... 68 like lines cut
GRID     61              0.      0.      0.
GRID*    62                             .550000131130219 0.
*        0.
GRID*    63                             .560000121593475 0.
*        0.
GRID*    64                             .570000112056732 0.
*        0.
GRID*    65                             .580000102519989 0.
*        0.
GRID*    66                             .590000152587891 0.
*        0.
GRID*    67                             .600000023841858 0.
*        0.
$ Loads for Load Case : LoadCase
SPCADD   2       1
$ Displacement Constraints of Load Set : SPC_12456
SPC1     1       12456   7       THRU    67
$ Referenced Coordinate Frames
ENDDATA a5e85dd1
