$ Start Embedded Fatigue Parameters & Load Sequences:
DTI      UNITS   1                                       MPA
$ Elements and Element Properties for region : viga
PBARL    1       1               BAR
         .02     .02
$ Pset: "viga" will be imported as: "pbarl.1"
CBAR     1       1       1       2       0.      1.      0.
                         0.      0.      0.      0.      0.      0.
CBAR     2       1       3       1       0.      1.      0.
                         0.      0.      0.      0.      0.      0.
$ Referenced Material Records
$ Material Record : mat6
$ Description of Material : Date: 01-Apr-21           Time: 17:10:16
MAT1     1       2.+11           .3      7900.
$ Nodes of the Entire Model
GRID*    1                              .224999994039536 0.
*        0.
GRID*    2                              .449999988079071 0.
*        0.
GRID     3               0.      0.      0.
$ Loads for Load Case : Carga_armonica
SPCADD   2       1       3       4
$ Displacement Constraints of Load Set : BC_2
SPC1     4       13456   1

