$ MSC.Nastran input file created on April     01, 2021 at 20:35:36 by
$ Patran 2020  (Student Edition)
$ Direct Text Input for Nastran System Cell Section
$ Direct Text Input for File Management Section
$ Direct Text Input for Executive Control
$ Frequency Response Analysis, Modal Formulation, Database
SOL 111
CEND
$ Direct Text Input for Global Case Control Data
TITLE = MSC.Nastran job created on 01-Apr-21 at 17:58:06
ECHO = NONE
$ Using Nastran default values for RESVEC
SUBCASE 1
   SUBTITLE=Carga_armonica
   METHOD = 1
   FREQUENCY = 1
   SPC = 2
   DISPLACEMENT(SORT1,REAL)=ALL
   SPCFORCES(SORT1,REAL)=ALL
$ Direct Text Input for this Subcase
BEGIN BULK
$ Direct Text Input for Bulk Data
MDLPRM   HDF5    0
PARAM   PRTMAXIM YES
$ Start Embedded Fatigue Parameters & Load Sequences:
DTI      UNITS   1                                       MPA
$ End Embedded Fatigue Parameters & Load Sequences
FREQ1    1       5.     .9895833 96
EIGRL    1                       10      0
$ Elements and Element Properties for region : viga
PBARL    1       1               BAR
         .02     .02
$ Pset: "viga" will be imported as: "pbarl.1"
CBAR     1       1       1       2       1.      0.      0.
                         0.      0.      0.      0.      0.      0.
CBAR     2       1       2       3       1.      0.      0.
                         0.      0.      0.      0.      0.      0.
CBAR     3       1       3       4       1.      0.      0.
                         0.      0.      0.      0.      0.      0.
CBAR     4       1       4       5       1.      0.      0.
                         0.      0.      0.      0.      0.      0.
CBAR     5       1       5       6       1.      0.      0.
                         0.      0.      0.      0.      0.      0.
CBAR     6       1       6       7       1.      0.      0.
                         0.      0.      0.      0.      0.      0.
CBAR     7       1       7       8       1.      0.      0.
                         0.      0.      0.      0.      0.      0.
CBAR     8       1       8       9       1.      0.      0.
                         0.      0.      0.      0.      0.      0.
CBAR     9       1       9       10      1.      0.      0.
                         0.      0.      0.      0.      0.      0.
CBAR     10      1       10      11      1.      0.      0.
                         0.      0.      0.      0.      0.      0.
CBAR     11      1       11      12      1.      0.      0.
                         0.      0.      0.      0.      0.      0.
CBAR     12      1       12      13      1.      0.      0.
                         0.      0.      0.      0.      0.      0.
CBAR     13      1       13      14      1.      0.      0.
                         0.      0.      0.      0.      0.      0.
CBAR     14      1       14      15      1.      0.      0.
                         0.      0.      0.      0.      0.      0.
CBAR     15      1       15      16      1.      0.      0.
                         0.      0.      0.      0.      0.      0.
CBAR     16      1       16      17      1.      0.      0.
                         0.      0.      0.      0.      0.      0.
CBAR     17      1       17      18      1.      0.      0.
                         0.      0.      0.      0.      0.      0.
CBAR     18      1       18      19      1.      0.      0.
                         0.      0.      0.      0.      0.      0.
CBAR     19      1       19      20      1.      0.      0.
                         0.      0.      0.      0.      0.      0.
CBAR     20      1       20      21      1.      0.      0.
                         0.      0.      0.      0.      0.      0.
$ ... 80 like lines cut
$ Referenced Material Records
$ Material Record : mat6
$ Description of Material : Date: 01-Apr-21           Time: 17:10:16
MAT1     1       2.+11           .3      7900.
$ Nodes of the Entire Model
GRID     1               0.      0.      0.
GRID*    2                              .007499999832362 0.
*        0.
GRID*    3                              .014999999664724 0.
*        0.
GRID*    4                              .022499997168779 0.
*        0.
GRID*    5                              .029999999329448 0.
*        0.
GRID*    6                              .037499997764826 0.
*        0.
GRID*    7                              .044999994337559 0.
*        0.
GRID*    8                              .052499994635582 0.
*        0.
GRID*    9                              .059999998658895 0.
*        0.
GRID*    10                             .067499995231628 0.
*        0.
GRID*    11                             .074999995529652 0.
*        0.
GRID*    12                             .082499995827675 0.
*        0.
GRID*    13                             .089999988675117 0.
*        0.
GRID*    14                             .097499988973141 0.
*        0.
GRID*    15                             .104999989271164 0.
*        0.
GRID*    16                             .112499989569187 0.
*        0.
GRID*    17                             .119999997317791 0.
*        0.
GRID*    18                             .127499997615814 0.
*        0.
GRID*    19                             .135000005364418 0.
*        0.
GRID*    20                             .142499998211861 0.
*        0.
GRID*    21                             .149999991059303 0.
*        0.
$ ... 58 like lines cut
GRID     52              .375    0.      0.
GRID*    53                             .382499992847443 0.
*        0.
GRID*    54                             .389999985694885 0.
*        0.
GRID*    55                             .397499978542328 0.
*        0.
GRID*    56                             .404999971389771 0.
*        0.
GRID*    57                             .412499964237213 0.
*        0.
GRID*    58                             .419999986886978 0.
*        0.
GRID*    59                             .427499979734421 0.
*        0.
GRID*    60                             .434999972581863 0.
*        0.
GRID*    61                             .442499965429306 0.
*        0.
GRID*    62                             .449999988079071 0.
*        0.
$ Loads for Load Case : Carga_armonica
SPCADD   2       1       3
$ Displacement Constraints of Load Set : BC_1
SPC1     1       123     1
$ Displacement Constraints of Load Set : BC_3
SPC1     3       123     62
$ Referenced Coordinate Frames
$
$
ENDDATA 88af4057
