$ MSC.Nastran input file created on June      12, 2021 at 17:22:02 by
$ Patran 2020  (Student Edition)
$ Direct Text Input for Nastran System Cell Section
$ Direct Text Input for File Management Section
$ Direct Text Input for Executive Control
$ Normal Modes Analysis, Database
SOL 103
CEND
$ Direct Text Input for Global Case Control Data
TITLE = MSC.Nastran job created on 10-Jun-21 at 01:09:56
ECHO = NONE
$ Using Nastran default values for RESVEC
SUBCASE 1
$ Subcase name : Default
   SUBTITLE=Default
   METHOD = 1
   VECTOR(SORT1,REAL)=ALL
   SPCFORCES(SORT1,REAL)=ALL
   EXTSEOUT(STIF,DAMP,MASS,EXTID=1,DMIGPCH)
BEGIN BULK
$ Direct Text Input for Bulk Data
PARAM    POST    0
PARAM   PRTMAXIM YES
EIGRL    1                       10      0
$ Elements and Element Properties for region : beam
PBARL    1       1               ROD
*        5.0000002-4
*
$ Pset: "beam" will be imported as: "pbarl.1"
CBAR     100     1       100     101     0.      0.      1.
                         0.      0.      0.      0.      0.      0.
CBAR     101     1       101     102     0.      0.      1.
                         0.      0.      0.      0.      0.      0.
CBAR     102     1       102     103     0.      0.      1.
                         0.      0.      0.      0.      0.      0.
CBAR     103     1       103     104     0.      0.      1.
                         0.      0.      0.      0.      0.      0.
CBAR     104     1       104     105     0.      0.      1.
                         0.      0.      0.      0.      0.      0.
CBAR     105     1       105     106     0.      0.      1.
                         0.      0.      0.      0.      0.      0.
CBAR     106     1       106     107     0.      0.      1.
                         0.      0.      0.      0.      0.      0.
CBAR     107     1       107     108     0.      0.      1.
                         0.      0.      0.      0.      0.      0.
CBAR     108     1       108     109     0.      0.      1.
                         0.      0.      0.      0.      0.      0.
CBAR     109     1       109     110     0.      0.      1.
                         0.      0.      0.      0.      0.      0.
CBAR     110     1       110     111     0.      0.      1.
                         0.      0.      0.      0.      0.      0.
CBAR     111     1       111     112     0.      0.      1.
                         0.      0.      0.      0.      0.      0.
CBAR     112     1       112     113     0.      0.      1.
                         0.      0.      0.      0.      0.      0.
CBAR     113     1       113     114     0.      0.      1.
                         0.      0.      0.      0.      0.      0.
CBAR     114     1       114     115     0.      0.      1.
                         0.      0.      0.      0.      0.      0.
CBAR     115     1       115     116     0.      0.      1.
                         0.      0.      0.      0.      0.      0.
CBAR     116     1       116     117     0.      0.      1.
                         0.      0.      0.      0.      0.      0.
CBAR     117     1       117     118     0.      0.      1.
                         0.      0.      0.      0.      0.      0.
CBAR     118     1       118     119     0.      0.      1.
                         0.      0.      0.      0.      0.      0.
CBAR     119     1       119     120     0.      0.      1.
                         0.      0.      0.      0.      0.      0.
$ ... 80 like lines cut
$ Referenced Material Records
$ Material Record : material
$ Description of Material : Date: 10-Jun-21           Time: 00:39:04
MAT1*    1               7.0000001+10                    .3
*        11333.
$ Nodes of the Entire Model
GRID     100             0.      0.      0.
GRID*    101                            .010000000707805 0.
*        0.
GRID*    102                             .02000000141561 0.
*        0.
GRID*    103                            .030000001192093 0.
*        0.
GRID*    104                            .040000002831221 0.
*        0.
GRID*    105                            .050000008195639 0.
*        0.
GRID*    106                            .060000006109476 0.
*        0.
GRID*    107                            .070000007748604 0.
*        0.
GRID*    108                            .080000013113022 0.
*        0.
GRID*    109                            .090000011026859 0.
*        0.
GRID*    110                            .100000023841858 0.
*        0.
GRID*    111                            .110000021755695 0.
*        0.
GRID*    112                            .120000019669533 0.
*        0.
GRID*    113                            .130000025033951 0.
*        0.
GRID*    114                            .140000015497208 0.
*        0.
GRID*    115                            .150000020861626 0.
*        0.
GRID*    116                            .160000026226044 0.
*        0.
GRID*    117                            .170000016689301 0.
*        0.
GRID*    118                            .180000022053719 0.
*        0.
GRID*    119                            .190000042319298 0.
*        0.
GRID*    120                            .200000047683716 0.
*        0.
$ ... 80 like lines cut
$ Loads for Load Case : Default
$ Referenced Coordinate Frames
ENDDATA b2280f97
