$ Start Embedded Fatigue Parameters & Load Sequences:
DTI      UNITS   1                                       MPA
$ Elements and Element Properties for region : masa_puntual
CONM2    9999    1000    -1      50.     0.      0.      0.
$ Elements and Element Properties for region : viga
PBARL    1       1               BAR
         .02     .02
$ Pset: "viga" will be imported as: "pbarl.1"
CBAR     1       1       1       2       0.      1.      0.
                         0.      0.      0.      0.      0.      0.
CBAR     2       1       2       3       0.      1.      0.
                         0.      0.      0.      0.      0.      0.
CBAR     3       1       3       4       0.      1.      0.
                         0.      0.      0.      0.      0.      0.
CBAR     4       1       4       5       0.      1.      0.
                         0.      0.      0.      0.      0.      0.
CBAR     5       1       5       6       0.      1.      0.
                         0.      0.      0.      0.      0.      0.
CBAR     6       1       6       7       0.      1.      0.
                         0.      0.      0.      0.      0.      0.
CBAR     7       1       7       8       0.      1.      0.
                         0.      0.      0.      0.      0.      0.
CBAR     8       1       8       9       0.      1.      0.
                         0.      0.      0.      0.      0.      0.
CBAR     9       1       9       10      0.      1.      0.
                         0.      0.      0.      0.      0.      0.
CBAR     10      1       10      11      0.      1.      0.
                         0.      0.      0.      0.      0.      0.
CBAR     11      1       11      12      0.      1.      0.
                         0.      0.      0.      0.      0.      0.
CBAR     12      1       12      13      0.      1.      0.
                         0.      0.      0.      0.      0.      0.
CBAR     13      1       13      14      0.      1.      0.
                         0.      0.      0.      0.      0.      0.
CBAR     14      1       14      15      0.      1.      0.
                         0.      0.      0.      0.      0.      0.
CBAR     15      1       15      16      0.      1.      0.
                         0.      0.      0.      0.      0.      0.
CBAR     16      1       16      17      0.      1.      0.
                         0.      0.      0.      0.      0.      0.
CBAR     17      1       17      18      0.      1.      0.
                         0.      0.      0.      0.      0.      0.
CBAR     18      1       18      19      0.      1.      0.
                         0.      0.      0.      0.      0.      0.
CBAR     19      1       19      20      0.      1.      0.
                         0.      0.      0.      0.      0.      0.
CBAR     20      1       20      21      0.      1.      0.
                         0.      0.      0.      0.      0.      0.
$ ... 200 like lines cut
$ Referenced Material Records
$ Material Record : mat
$ Description of Material : Date: 04-Apr-21           Time: 20:06:34
MAT1     1       2.+11           .3      7900.                   .02
$ Multipoint Constraints of the Entire Model
$ ID conflict : the PATRAN MPC ID was 1
RBE2     10000   61      123     1000
$ Nodes of the Entire Model
GRID     1               0.      0.      0.
GRID*    2                              .003749999916181 0.
*        0.
GRID*    3                              .007499999832362 0.
*        0.
GRID*    4                               .01124999858439 0.
*        0.
GRID*    5                              .014999999664724 0.
*        0.
GRID*    6                              .018749998882413 0.
*        0.
GRID*    7                              .022499997168779 0.
*        0.
GRID*    8                              .026249997317791 0.
*        0.
GRID*    9                              .029999999329448 0.
*        0.
GRID*    10                             .033749997615814 0.
*        0.
GRID*    11                             .037499997764826 0.
*        0.
GRID*    12                             .041249997913837 0.
*        0.
GRID*    13                             .044999994337559 0.
*        0.
GRID*    14                              .04874999448657 0.
*        0.
GRID*    15                             .052499994635582 0.
*        0.
GRID*    16                             .056249994784594 0.
*        0.
GRID*    17                             .059999998658895 0.
*        0.
GRID*    18                             .063749998807907 0.
*        0.
GRID*    19                             .067499995231628 0.
*        0.
GRID*    20                              .07124999165535 0.
*        0.
GRID*    21                             .074999995529652 0.
*        0.
$ ... 108 like lines cut
GRID     77              .28125  0.      0.
GRID*    78                             .284999996423721 0.
*        0.
GRID*    79                             .288749992847443 0.
*        0.
GRID*    80                             .292499989271164 0.
*        0.
GRID*    81                             .296249985694885 0.
*        0.
GRID*    82                             .299999982118607 0.
*        0.
GRID*    83                             .303749978542328 0.
*        0.
GRID*    84                             .307500004768372 0.
*        0.
GRID*    85                             .311249971389771 0.
*        0.
GRID*    86                             .314999997615814 0.
*        0.
GRID*    87                             .318749994039536 0.
*        0.
GRID*    88                             .322499990463257 0.
*        0.
GRID*    89                             .326249986886978 0.
*        0.
GRID*    90                             .329999983310699 0.
*        0.
GRID*    91                             .333749979734421 0.
*        0.
GRID*    92                             .337499976158142 0.
*        0.
GRID*    93                             .341250002384186 0.
*        0.
GRID*    94                             .344999998807907 0.
*        0.
GRID*    95                             .348749995231628 0.
*        0.
GRID*    96                              .35249999165535 0.
*        0.
GRID*    97                             .356249988079071 0.
*        0.
$ ... 8 like lines cut
GRID     102             .375    0.      0.
GRID*    103                            .378749996423721 0.
*        0.
GRID*    104                            .382499992847443 0.
*        0.
GRID*    105                            .386249989271164 0.
*        0.
GRID*    106                            .389999985694885 0.
*        0.
GRID*    107                            .393749982118607 0.
*        0.
GRID*    108                            .397499978542328 0.
*        0.
GRID*    109                            .401249974966049 0.
*        0.
GRID*    110                            .404999971389771 0.
*        0.
GRID*    111                            .408749967813492 0.
*        0.
GRID*    112                            .412499964237213 0.
*        0.
GRID*    113                            .416249990463257 0.
*        0.
GRID*    114                            .419999986886978 0.
*        0.
GRID*    115                            .423749983310699 0.
*        0.
GRID*    116                            .427499979734421 0.
*        0.
GRID*    117                            .431249976158142 0.
*        0.
GRID*    118                            .434999972581863 0.
*        0.
GRID*    119                            .438749969005585 0.
*        0.
GRID*    120                            .442499965429306 0.
*        0.
GRID*    121                             .44624999165535 0.
*        0.
GRID*    122                            .449999988079071 0.
*        0.
GRID*    1000                           .224999994039536 0.
*        0.
$ Loads for Load Case : Carga_armonica
SPCADD   2       1

